d_014_mdl_reporte.txt
POWER FLOW REPORT
 
P S A T  2.1.9
 
Author:  Federico Milano, (c) 2002-2013
e-mail:  federico.milano@ucd.ie
website: faraday1.ucd.ie/psat.html
 
File:  C:\Users\Miguel\Documents\MATLAB\psat\tests\d_014_mdl
Date:  10-May-2017 16:49:58


NETWORK STATISTICS

Buses:                        14         
Lines:                        16         
Transformers:                 4          
Generators:                   5          
Loads:                        11         

SOLUTION STATISTICS

Number of Iterations:         4          
Maximum P mismatch [p.u.]     0          
Maximum Q mismatch [p.u.]     0          
Power rate [MVA]              100        

POWER FLOW RESULTS

Bus         V           phase       P gen       Q gen       P load      Q load      
            [p.u.]      [deg]       [p.u.]      [p.u.]      [p.u.]      [p.u.]      

Bus 01      1.06        0           3.5205     -0.27899     0           0          
Bus 02      1.045      -7.7664      0.4         0.95134     0.3038      0.1778     
Bus 03      1.01       -18.9992     0           0.59796     1.3188      0.266      
Bus 04      0.99772    -15.0953     0           0           0.6692      0.056      
Bus 05      1.0024     -13.0337     0           0           0.1064      0.0224     
Bus 06      1.07       -21.7463     0           0.44264     0.1568      0.105      
Bus 07      1.0347     -20.2771     0           0           0           0          
Bus 08      1.09       -20.2771     0           0.34242     0           0          
Bus 09      1.0111     -23.0248     0           0           0.413       0.2324     
Bus 10      1.0105     -23.2008     0           0           0.126       0.0812     
Bus 11      1.0346     -22.6341     0           0           0.049       0.0252     
Bus 12      1.0461     -23.0009     0           0           0.0854      0.0224     
Bus 13      1.0362     -23.101      0           0           0.189       0.0812     
Bus 14      0.99568    -24.5526     0           0           0.2086      0.07       

LINE FLOWS

From Bus    To Bus      Line        P Flow      Q Flow      P Loss      Q Loss      
                                    [p.u.]      [p.u.]      [p.u.]      [p.u.]      

Bus 02      Bus 05      1           0.58278     0.07227     0.01814     0.01975    
Bus 06      Bus 12      2           0.11726     0.04464     0.00169     0.00352    
Bus 12      Bus 13      3           0.03017     0.01873     0.00025     0.00023    
Bus 06      Bus 13      4           0.27313     0.14163     0.00547     0.01077    
Bus 06      Bus 11      5           0.14449     0.12199     0.00297     0.00621    
Bus 11      Bus 10      6           0.09253     0.09057     0.00129     0.00301    
Bus 09      Bus 10      7           0.0348     -0.00626     4e-05       0.0001     
Bus 09      Bus 14      8           0.104       0.01006     0.00136     0.00289    
Bus 14      Bus 13      9          -0.10596    -0.06283     0.00262     0.00533    
Bus 07      Bus 09      10          0.45586     0.23268     0           0.02692    
Bus 01      Bus 02      11          2.415      -0.38021     0.10271     0.2551     
Bus 03      Bus 02      12         -1.0003      0.13866     0.04729     0.15297    
Bus 03      Bus 04      13         -0.31849     0.1933      0.00959    -0.0104     
Bus 01      Bus 05      14          1.1056      0.10122     0.05957     0.19356    
Bus 05      Bus 04      15          0.81253    -0.13835     0.009       0.0156     
Bus 02      Bus 04      16          0.77808     0.05165     0.03249     0.05955    
Bus 04      Bus 09      17          0.09598     0.03594     5e-05       0.00551    
Bus 05      Bus 06      18          0.69168     0.07613     0           0.1055     
Bus 04      Bus 07      19          0.45586    -0.05009     0           0.04226    
Bus 08      Bus 07      20          0           0.34242     0           0.01738    

LINE FLOWS

From Bus    To Bus      Line        P Flow      Q Flow      P Loss      Q Loss      
                                    [p.u.]      [p.u.]      [p.u.]      [p.u.]      

Bus 05      Bus 02      1          -0.56464    -0.05252     0.01814     0.01975    
Bus 12      Bus 06      2          -0.11557    -0.04113     0.00169     0.00352    
Bus 13      Bus 12      3          -0.02991    -0.0185      0.00025     0.00023    
Bus 13      Bus 06      4          -0.26766    -0.13086     0.00547     0.01077    
Bus 11      Bus 06      5          -0.14153    -0.11577     0.00297     0.00621    
Bus 10      Bus 11      6          -0.09124    -0.08757     0.00129     0.00301    
Bus 10      Bus 09      7          -0.03476     0.00637     4e-05       0.0001     
Bus 14      Bus 09      8          -0.10264    -0.00717     0.00136     0.00289    
Bus 13      Bus 14      9           0.10857     0.06816     0.00262     0.00533    
Bus 09      Bus 07      10         -0.45586    -0.20577     0           0.02692    
Bus 02      Bus 01      11         -2.3123      0.63531     0.10271     0.2551     
Bus 02      Bus 03      12          1.0476      0.01431     0.04729     0.15297    
Bus 04      Bus 03      13          0.32807    -0.2037      0.00959    -0.0104     
Bus 05      Bus 01      14         -1.046       0.09234     0.05957     0.19356    
Bus 04      Bus 05      15         -0.80353     0.15395     0.009       0.0156     
Bus 04      Bus 02      16         -0.74559     0.00791     0.03249     0.05955    
Bus 09      Bus 04      17         -0.09593    -0.03043     5e-05       0.00551    
Bus 06      Bus 05      18         -0.69168     0.02938     0           0.1055     
Bus 07      Bus 04      19         -0.45586     0.09235     0           0.04226    
Bus 07      Bus 08      20          0          -0.32503     0           0.01738    

GLOBAL SUMMARY REPORT


TOTAL GENERATION

REAL POWER [p.u.]             3.9205     
REACTIVE POWER [p.u.]         2.0554     

TOTAL LOAD

REAL POWER [p.u.]             3.626      
REACTIVE POWER [p.u.]         1.1396     

TOTAL LOSSES

REAL POWER [p.u.]             0.29452    
REACTIVE POWER [p.u.]         0.91576    

